network_model/Master.dss
! IEEE 123-bus test case

Clear

New object=circuit.ieee123
~ basekv=4.16 Bus1=150 pu=1.00 R1=0 X1=0.0001 R0=0 X0=0.0001

! 3-PHASE GANGED REGULATOR AT HEAD OF FEEDER (KERSTING ASSUMES NO IMPEDANCE IN THE REGULATOR)

new transformer.reg1a phases=3 windings=2 buses=[150 150r] conns=[wye wye] kvs=[4.16 4.16] kvas=[5000 5000] XHL=.001 %LoadLoss=0.00001 ppm=0.0
new regcontrol.creg1a transformer=reg1a winding=2 vreg=120 band=2 ptratio=20 ctprim=700 R=3 X=7.5

! REDIRECT INPUT STREAM TO FILE CONTAINING DEFINITIONS OF LINECODES

Redirect IEEELinecodes.DSS

Redirect Lines.DSS

! NORMALLY OPEN SWITCHES; DEFINED AS SHORT LINE TO OPEN BUS SO WE CAN SEE OPEN POINT VOLTAGES. 

New Line.Sw7    phases=3  Bus1=151    Bus2=300_OPEN   r1=1e-3 r0=1e-3  x1=0.000 x0=0.000 c1=0.000 c0=0.000 Length=0.001
New Line.Sw8    phases=1  Bus1=54.1   Bus2=94_OPEN.1  r1=1e-3 r0=1e-3  x1=0.000 x0=0.000 c1=0.000 c0=0.000 Length=0.001

! LOAD TRANSFORMER

New Transformer.XFM1  Phases=3   Windings=2 Xhl=2.72
~ wdg=1 bus=61s       conn=Delta kv=4.16    kva=150    %r=0.635
~ wdg=2 bus=610       conn=Delta kv=0.48    kva=150    %r=0.635

! CAPACITORS

New Capacitor.C83       Bus1=83      Phases=3     kVAR=600     kV=4.16
New Capacitor.C88a      Bus1=88.1    Phases=1     kVAR=50      kV=2.402
New Capacitor.C90b      Bus1=90.2    Phases=1     kVAR=50      kV=2.402
New Capacitor.C92c      Bus1=92.3    Phases=1     kVAR=50      kV=2.402

!REGULATORS

Redirect IEEE123Regulators.DSS

! SPOT LOADS

New loadshape.loadprofile_yearly npts=8760 minterval=60 mult=(file=loadprofile_yearly.csv)

Redirect IEEE123Loads.DSS

batchedit load..*  yearly=loadprofile_yearly     !---- changes all loads

New Energymeter.Feeder Line.L115 1

Set VoltageBases = [4.16, 2.4017, 0.48, 0.277]    ! ARRAY OF VOLTAGES IN KV
CalcVoltageBases  ! PERFORMS ZERO LOAD POWER FLOW TO ESTIMATE VOLTAGE BASES

buscoords buscoords.dat